/*---------------------------------------------------------------------------*\
| =========                 |                                                 |
| \\      /  F ield         | OpenFOAM: The Open Source CFD Toolbox           |
|  \\    /   O peration     | Version:  2.1.1                                 |
|   \\  /    A nd           | Web:      www.OpenFOAM.org                      |
|    \\/     M anipulation  |                                                 |
\*---------------------------------------------------------------------------*/
Build  : 2.1.1-221db2718bbb
Exec   : snappyHexMesh
Date   : Feb 21 2013
Time   : 12:23:17
Host   : "tptatu-E6520"
PID    : 18877
Case   : /home/tptatu/OpenFOAM/tptatu-2.1.1/run/tutorials/compressible/diffusiveTatunCentralFoam/refinedShortInlets
nProcs : 1
sigFpe : Enabling floating point exception trapping (FOAM_SIGFPE).
fileModificationChecking : Monitoring run-time modified files using timeStampMaster
allowSystemOperations : Disallowing user-supplied system call operations

// * * * * * * * * * * * * * * * * * * * * * * * * * * * * * * * * * * * * * //
Create time

Create mesh for time = 0

Read mesh in = 0.17 s

Overall mesh bounding box  : (-0.05 -4.68375e-19 -0.0001) (0.36195 0.3 0.0001)
Relative tolerance         : 1e-06
Absolute matching distance : 5.0961e-07

Reading refinement surfaces.
Read refinement surfaces in = 0 s

Reading refinement shells.
Refinement level 1 for all cells inside hieno
Read refinement shells in = 0 s

Setting refinement level of surface to be consistent with shells.
Checked shell refinement in = 0 s

Reading features.
Read features in = 0 s


Determining initial surface intersections
-----------------------------------------

Edge intersection testing:
    Number of edges             : 98858
    Number of edges to retest   : 98858
    Number of intersected edges : 0
Calculated surface intersections in = 0.12 s

Initial mesh : cells:24565  faces:98858  points:50328
Cells per refinement level:
    0	24565

Adding patches for surface regions
----------------------------------

Patch	Type	Region
-----	----	------
Added patches in = 0 s

Selecting decompositionMethod hierarchical

Refinement phase
----------------

Found point (0.0640667 0.003 5e-05) in cell 3783 on processor 0

Surface refinement iteration 0
------------------------------

Marked for refinement due to surface intersection : 0 cells.
Determined cells to refine in = 0.02 s
Selected for refinement : 0 cells (out of 24565)
Stopping refining since too few cells selected.


Removing mesh beyond surface intersections
------------------------------------------

Found point (0.0640667 0.003 5e-05) in cell 3783 in global region 0 out of 1 regions.
Keeping all cells in region 0 containing point (0.0640667 0.003 5e-05)
Selected for keeping : 24565 cells.
Edge intersection testing:
    Number of edges             : 98858
    Number of edges to retest   : 0
    Number of intersected edges : 0

Shell refinement iteration 0
----------------------------

Marked for refinement due to refinement shells    : 10045 cells.
Determined cells to refine in = 0.11 s
Selected for internal refinement : 10045 cells (out of 24565)
Edge intersection testing:
    Number of edges             : 341276
    Number of edges to retest   : 283930
    Number of intersected edges : 0
Refined mesh in = 0.51 s
After refinement shell refinement iteration 0 : cells:94880  faces:341276  points:152563
Cells per refinement level:
    0	14520
    1	80360

Shell refinement iteration 1
----------------------------

Marked for refinement due to refinement shells    : 0 cells.
Determined cells to refine in = 0.02 s
Selected for internal refinement : 0 cells (out of 94880)
Stopping refining since too few cells selected.


Splitting mesh at surface intersections
---------------------------------------

Introducing baffles for 0 faces that are intersected by the surface.

Edge intersection testing:
    Number of edges             : 341276
    Number of edges to retest   : 0
    Number of intersected edges : 0
Created baffles in = 0.25 s


After introducing baffles : cells:94880  faces:341276  points:152563
Cells per refinement level:
    0	14520
    1	80360

Remove unreachable sections of mesh
-----------------------------------

Keeping all cells in region 0 containing point (0.0640667 0.003 5e-05)
Selected for keeping : 94880 cells.
Edge intersection testing:
    Number of edges             : 341276
    Number of edges to retest   : 0
    Number of intersected edges : 0
Split mesh in = 0.34 s


After subsetting : cells:94880  faces:341276  points:152563
Cells per refinement level:
    0	14520
    1	80360

Merge free-standing baffles
---------------------------

getDuplicateFaces : found 0 pairs of duplicate faces.

Detected free-standing baffles : 0
Merged free-standing baffles in = 0.13 s



Handling cells with snap problems
---------------------------------

Introducing baffles for 0 faces that are intersected by the surface.

Edge intersection testing:
    Number of edges             : 341276
    Number of edges to retest   : 0
    Number of intersected edges : 0
Created baffles in = 0.25 s


After introducing baffles : cells:94880  faces:341276  points:152563
Cells per refinement level:
    0	14520
    1	80360

Remove unreachable sections of mesh
-----------------------------------

Keeping all cells in region 0 containing point (0.0640667 0.003 5e-05)
Selected for keeping : 94880 cells.
Edge intersection testing:
    Number of edges             : 341276
    Number of edges to retest   : 0
    Number of intersected edges : 0
Split mesh in = 0.34 s


After subsetting : cells:94880  faces:341276  points:152563
Cells per refinement level:
    0	14520
    1	80360
dupNonManifoldPoints : Found : 0 non-manifold points (out of 152563)
Edge intersection testing:
    Number of edges             : 341276
    Number of edges to retest   : 0
    Number of intersected edges : 0
getDuplicateFaces : found 0 pairs of duplicate faces.

Detected unsplittable baffles : 0
Refined mesh : cells:94880  faces:341276  points:152563
Cells per refinement level:
    0	14520
    1	80360
Writing mesh to time 1e-06
Wrote mesh in = 1.35 s.
Mesh refined in = 3.32 s.
Finished meshing in = 3.61 s.
End

